Questionable use of curly braces in ".model sir870adp vdmos(rg=3 vto=2.9 rd=3.2m rs=1.5m rb={m} kp=100 mtriode=1.85 cgdmax=1.4n cgdmin=70p cgs=2.9n cjo=3.6n m=.4 a=.7 vj=.7 lambda=20m is=3p ksubthres=.08 mfg=siliconix vds=100 ron=5.5m qg=53.5n)"
    Error: undefined symbol in: "[m]"
Circuit: * Z:\Projects\SSTC-v1\PSU.asc

Limiting rise time of source v3 to 0.1
Limiting fall time of source v3 to 0.1
Direct Newton iteration for .op point succeeded.

Date: Sat Sep 30 20:39:21 2023
Total elapsed time: 0.176 seconds.

tnom = 27
temp = 27
method = modified trap
totiter = 2813
traniter = 2799
tranpoints = 1209
accept = 1167
rejected = 42
matrix size = 19
fillins = 9
solver = Normal
Matrix Compiler1: 1.44 KB object code size  0.2/0.1/[0.1]
Matrix Compiler2: off  [0.1]/0.1/0.1


