Questionable use of curly braces in ".model sir870adp vdmos(rg=3 vto=2.9 rd=3.2m rs=1.5m rb={m} kp=100 mtriode=1.85 cgdmax=1.4n cgdmin=70p cgs=2.9n cjo=3.6n m=.4 a=.7 vj=.7 lambda=20m is=3p ksubthres=.08 mfg=siliconix vds=100 ron=5.5m qg=53.5n)"
    Error: undefined symbol in: "[m]"
Circuit: * \\Files\Ben\LTSpice\BOSOZ.asc

.OP point found by inspection.

Date: Fri Nov 05 20:38:59 2021
Total elapsed time: 14.834 seconds.

tnom = 27
temp = 27
method = modified trap
totiter = 963564
traniter = 963564
tranpoints = 319983
accept = 208155
rejected = 111828
matrix size = 72
fillins = 118
solver = Normal
Matrix Compiler1: 12.34 KB object code size  9.6/5.0/[2.3]
Matrix Compiler2: 8.28 KB object code size  3.2/3.7/[1.2]


