Stray ".ends" card: .ends
Circuit: * C:\Documents and Settings\Administrator\Desktop\counterpoint2.asc

Warning: Multiple definitions of model "bc327-25" Type: BJT
Direct Newton iteration failed to find .op point.  (Use ".option noopiter" to skip.)
Starting Gmin stepping
Gmin = 10
Gmin = 1.07374
vernier = 0.5
vernier = 0.25
vernier = 0.125
vernier = 0.0625
Gmin = 1.08884
vernier = 0.03125
vernier = 0.015625
Gmin = 1.03122
vernier = 0.0078125
vernier = 0.0104167
vernier = 0.00520833
Gmin = 1.01724
vernier = 0.00260417
vernier = 0.00347222
Gmin = 1.01042
vernier = 0.00173611
vernier = 0.00231481
vernier = 0.00115741
Gmin = 1.00852
vernier = 0.00154321
vernier = 0.000771604
Gmin = 1.00667
vernier = 0.00102881
vernier = 0.000514403
vernier = 0.00068587
Gmin = 1.00542
vernier = 0.000514403
vernier = 0.00068587
vernier = 0.000514402
Gmin = 1.00461
Gmin = 0
Gmin stepping failed

Starting source stepping with srcstepmethod=0
Source Step = 3.0303%
Source Step = 33.3333%
Source Step = 45.4575%
Source Step = 45.4871%
Source Step = 45.5167%
Source Step = 45.5463%
Source Step = 45.5759%
Source Step = 45.6055%
vernier = 0.00146484
Source Step = 45.6425%
Source Step = 45.6868%
Source Step = 45.7312%
Source Step = 45.7756%
Source Step = 45.82%
vernier = 0.00219727
Source Step = 45.8733%
Source Step = 45.9399%
Source Step = 46.0065%
Source Step = 46.073%
Source Step = 46.1396%
vernier = 0.0032959
Source Step = 46.2162%
Source Step = 46.3161%
Source Step = 46.4159%
Source Step = 46.5158%
Source Step = 46.6157%
vernier = 0.00494385
Source Step = 46.7256%
Source Step = 46.8754%
Source Step = 47.0252%
Source Step = 47.175%
Source Step = 47.3248%
vernier = 0.00741577
Source Step = 47.4821%
Source Step = 47.7068%
Source Step = 47.9316%
Source Step = 48.1563%
Source Step = 48.381%
Source Step = 48.6057%
vernier = 0.0111237
Source Step = 48.9428%
Source Step = 49.2799%
Source Step = 49.617%
Source Step = 49.954%
Source Step = 50.2911%
vernier = 0.0166855
Source Step = 50.7799%
Source Step = 51.2855%
Source Step = 51.7911%
Source Step = 52.2967%
Source Step = 52.8024%
vernier = 0.0250282
Source Step = 53.5102%
Source Step = 54.2687%
Source Step = 55.0271%
Source Step = 55.7855%
Source Step = 56.544%
vernier = 0.0375423
Source Step = 57.5678%
Source Step = 58.7055%
Source Step = 59.8431%
Source Step = 60.9808%
Source Step = 62.1184%
vernier = 0.0563135
Source Step = 63.5974%
Source Step = 65.3038%
Source Step = 67.0103%
Source Step = 68.7168%
Source Step = 70.4233%
vernier = 0.0844703
Source Step = 72.5563%
Source Step = 75.116%
Source Step = 77.6758%
Source Step = 80.2355%
Source Step = 82.7952%
vernier = 0.126705
Source Step = 85.8668%
Source Step = 89.7064%
Source Step = 90.8642%
Source Step = 90.9242%
Source Step = 90.9842%
Source Step = 91.0442%
Source Step = 91.1042%
Source Step = 91.1642%
vernier = 0.00296966
Source Step = 91.2482%
Source Step = 91.3382%
Source Step = 91.4282%
Source Step = 91.5182%
Source Step = 91.6081%
vernier = 0.00445449
Source Step = 91.7296%
Source Step = 91.8646%
Source Step = 91.9996%
Source Step = 92.1346%
Source Step = 92.2696%
vernier = 0.00668173
Source Step = 92.4451%
Source Step = 92.6475%
Source Step = 92.85%
Source Step = 93.0525%
Source Step = 93.255%
vernier = 0.0100226
Source Step = 93.5081%
Source Step = 93.8118%
Source Step = 94.1155%
Source Step = 94.4192%
Source Step = 94.7229%
vernier = 0.0150339
Source Step = 95.0874%
Source Step = 95.5429%
Source Step = 95.9985%
Source Step = 96.4541%
Source Step = 96.9097%
vernier = 0.0225508
Source Step = 97.4336%
Source Step = 98.1169%
Source Step = 98.8003%
Source Step = 99.4836%
Source stepping succeeded in finding the operating point.

.step vin=9
