Circuit: * Z:\Users\BenPro\Documents\Electronic Projects\SPICE\New\Draft1.asc

Direct Newton iteration for .op point succeeded.

Date: Thu Jan 30 18:39:44 2014
Total elapsed time: 0.222 seconds.

tnom = 27
temp = 27
method = modified trap
totiter = 9441
traniter = 9402
tranpoints = 4582
accept = 2902
rejected = 1680
matrix size = 79
fillins = 70
solver = Normal
Matrix Compiler1: 7.90 KB object code size  1.8/0.9/[0.5]
Matrix Compiler2: 7.66 KB object code size  0.8/1.0/[0.5]


