Circuit: * C:\Documents and Settings\Administrator\Desktop\New Folder (2)\Draft5.asc

Direct Newton iteration failed to find .op point.  (Use ".option noopiter" to skip.)
Starting Gmin stepping
Gmin = 10
Gmin = 1.07374
Gmin = 0.115292
Gmin = 0.0123794
Gmin = 0.00132923
Gmin = 0.000142725
Gmin = 1.5325e-005
Gmin = 1.6455e-006
Gmin = 1.76685e-007
Gmin = 1.89714e-008
Gmin = 2.03704e-009
Gmin = 2.18725e-010
Gmin = 2.34854e-011
Gmin = 2.52173e-012
Gmin = 2.70769e-013
Gmin = 0
Gmin stepping succeeded in finding the operating point.


Date: Fri Aug 17 12:10:24 2012
Total elapsed time: 7.437 seconds.

tnom = 27
temp = 27
method = modified trap
totiter = 162382
traniter = 161902
tranpoints = 80952
accept = 55614
rejected = 25338
matrix size = 33
fillins = 39
solver = Normal
Thread vector: 73.8/47.4[2] 7.5/5.4[2] 4.5/2.9[2] 0.8/1.0[1]  2592/500
Matrix Compiler1: 4.85 KB object code size  2.5/1.3/[0.6]
Matrix Compiler2: 3.87 KB object code size  1.8/1.4/[0.7]


