Circuit: * \\Mac\LTSpice\Draft1.asc

Direct Newton iteration failed to find .op point.  (Use ".option noopiter" to skip.)
Starting Gmin stepping
Gmin = 10
Gmin = 1.07374
Gmin = 0.115292
Gmin = 0.0123794
Gmin = 0.00132923
Gmin = 0.000142725
Gmin = 1.5325e-005
Gmin = 1.6455e-006
Gmin = 1.76685e-007
Gmin = 1.89714e-008
Gmin = 2.03704e-009
Gmin = 2.18725e-010
Gmin = 2.34854e-011
Gmin = 2.52173e-012
Gmin = 2.70769e-013
Gmin = 0
Gmin stepping succeeded in finding the operating point.


Date: Sun Mar 24 08:42:36 2019
Total elapsed time: 0.578 seconds.

tnom = 27
temp = 27
method = modified trap
totiter = 13422
traniter = 12983
tranpoints = 4581
accept = 2902
rejected = 1679
matrix size = 68
fillins = 36
solver = Normal
Matrix Compiler1: 7.23 KB object code size  1.2/0.7/[0.5]
Matrix Compiler2: 6.78 KB object code size  0.7/0.8/[0.4]


