Circuit: * C:\Documents and Settings\Administrator\Desktop\New Folder (2)\JFET BUFFER.asc

Direct Newton iteration for .op point succeeded.

Date: Mon Jun 11 20:43:13 2012
Total elapsed time: 0.047 seconds.

tnom = 27
temp = 27
method = modified trap
totiter = 2098
traniter = 2092
tranpoints = 1047
accept = 1047
rejected = 0
matrix size = 21
fillins = 14
solver = Normal
Matrix Compiler1: 2.23 KB object code size  1.1/0.6/[0.4]
Matrix Compiler2: 2.03 KB object code size  0.6/0.6/[0.4]


