Circuit: * Z:\Users\ben\Documents\Electronic Projects\SPICE\New Folder (2)\NEWSALAS.asc

Direct Newton iteration failed to find .op point.  (Use ".option noopiter" to skip.)
Starting Gmin stepping
Gmin = 10
Gmin = 1.07374
Gmin = 0.115292
Gmin = 0.0123794
Gmin = 0.00132923
Gmin = 0.000142725
Gmin = 1.5325e-005
Gmin = 1.6455e-006
Gmin = 1.76685e-007
Gmin = 1.89714e-008
Gmin = 2.03704e-009
Gmin = 2.18725e-010
Gmin = 2.34854e-011
Gmin = 2.52173e-012
Gmin = 2.70769e-013
Gmin = 0
Gmin stepping succeeded in finding the operating point.


Date: Mon Aug 19 11:49:06 2013
Total elapsed time: 0.156 seconds.

tnom = 27
temp = 27
method = modified trap
totiter = 2627
traniter = 2094
tranpoints = 1048
accept = 1048
rejected = 0
matrix size = 42
fillins = 53
solver = Normal
Matrix Compiler1: 5.61 KB object code size  3.2/1.3/[0.5]
Matrix Compiler2: 4.34 KB object code size  1.4/1.0/[0.6]


