Questionable use of curly braces in ".model sir870adp vdmos(rg=3 vto=2.9 rd=3.2m rs=1.5m rb={m} kp=100 mtriode=1.85 cgdmax=1.4n cgdmin=70p cgs=2.9n cjo=3.6n m=.4 a=.7 vj=.7 lambda=20m is=3p ksubthres=.08 mfg=siliconix vds=100 ron=5.5m qg=53.5n)"
    Error: undefined symbol in: "[m]"
Circuit: * Z:\LTSpice\PreampPSU.asc

WARNING: Specified period is not longer than the sum of Trise, Tfall, and Ton for v2.  Increasing period to 10
Limiting rise time of source v2 to 1.95399e-015
Limiting fall time of source v2 to 1.95399e-015
.OP point found by inspection.

Date: Mon Nov 02 20:40:30 2020
Total elapsed time: 0.201 seconds.

tnom = 27
temp = 27
method = modified trap
totiter = 4104
traniter = 4104
tranpoints = 1578
accept = 1448
rejected = 130
matrix size = 32
fillins = 0
solver = Normal
Matrix Compiler1: 1.91 KB object code size  0.4/0.3/[0.2]
Matrix Compiler2: 2.59 KB object code size  0.2/0.3/[0.2]


