Circuit: * C:\Documents and Settings\Administrator\Desktop\New Folder (2)\SALASSHUNTNEG.asc

Direct Newton iteration failed to find .op point.  (Use ".option noopiter" to skip.)
Starting Gmin stepping
Gmin = 10
Gmin = 1.07374
Gmin = 0.115292
Gmin = 0.0123794
Gmin = 0.00132923
Gmin = 0.000142725
Gmin = 1.5325e-005
Gmin = 1.6455e-006
Gmin = 1.76685e-007
Gmin = 1.89714e-008
Gmin = 2.03704e-009
Gmin = 2.18725e-010
Gmin = 2.34854e-011
Gmin = 2.52173e-012
Gmin = 2.70769e-013
Gmin = 0
Gmin stepping succeeded in finding the operating point.


Date: Sat Mar 17 09:52:39 2012
Total elapsed time: 0.250 seconds.

tnom = 27
temp = 27
method = modified trap
totiter = 2574
traniter = 2092
tranpoints = 1047
accept = 1047
rejected = 0
matrix size = 30
fillins = 20
solver = Normal
Matrix Compiler1: 3.25 KB object code size  1.7/0.9/[0.5]
Matrix Compiler2: 2.89 KB object code size  1.4/1.2/[0.6]


