Circuit: * C:\Documents and Settings\Administrator\Desktop\TL431_AC_TestBench.asc

Direct Newton iteration failed to find .op point.  (Use ".option noopiter" to skip.)
Starting Gmin stepping
Gmin = 10
Gmin = 1.07374
Gmin = 0.115292
Gmin = 0.0123794
Gmin = 0.00132923
Gmin = 0.000142725
Gmin = 1.5325e-005
Gmin = 1.6455e-006
vernier = 0.5
vernier = 0.25
Gmin = 4.79288e-007
vernier = 0.125
vernier = 0.0625
vernier = 0.03125
vernier = 0.015625
Gmin = 4.70078e-007
vernier = 0.0078125
vernier = 0.00390625
vernier = 0.00195313
vernier = 0.000976563
Gmin = 4.69047e-007
vernier = 0.000488281
Gmin = 0
Gmin stepping failed

Starting source stepping with srcstepmethod=0
Source Step = 3.0303%
Source Step = 33.3333%
Source Step = 40.1515%
Source Step = 47.7273%
Source Step = 55.303%
Source Step = 62.8788%
Source Step = 70.4545%
vernier = 0.375
Source Step = 76.5329%
vernier = 0.00146484
Source Step = 76.5595%
Source Step = 76.6039%
Source Step = 76.6483%
Source Step = 76.6927%
Source Step = 76.7371%
vernier = 0.00219727
Source Step = 76.797%
Source Step = 76.8636%
Source Step = 76.9302%
Source Step = 76.9968%
Source Step = 77.0634%
vernier = 0.0032959
Source Step = 77.1499%
Source Step = 77.2498%
Source Step = 77.3497%
Source Step = 77.4495%
Source Step = 77.5494%
vernier = 0.00494385
Source Step = 77.6743%
Source Step = 77.8241%
Source Step = 77.9739%
Source Step = 78.1237%
Source Step = 78.2735%
vernier = 0.00741577
Source Step = 78.4533%
Source Step = 78.678%
Source Step = 78.9027%
Source Step = 79.1275%
Source Step = 79.3522%
vernier = 0.0111237
Source Step = 79.6106%
Source Step = 79.9477%
Source Step = 80.2848%
Source Step = 80.6218%
Source Step = 80.9589%
vernier = 0.0166855
Source Step = 81.3297%
Source Step = 81.8353%
Source Step = 82.341%
Source Step = 82.8466%
Source Step = 83.3522%
vernier = 0.0250282
Source Step = 83.8831%
Source Step = 84.6415%
Source Step = 85.4%
Source Step = 86.1584%
Source Step = 86.9168%
Source Step = 87.6753%
vernier = 0.0375423
Source Step = 88.8129%
Source Step = 89.9505%
Source Step = 90.3274%
Source Step = 90.3985%
Source Step = 90.4696%
Source Step = 90.5407%
Source Step = 90.6118%
Source Step = 90.6829%
Source Step = 90.754%
Source Step = 90.8251%
Source Step = 90.8962%
Source Step = 90.9673%
Source Step = 91.0384%
Source Step = 91.1095%
Source Step = 91.1806%
Source Step = 91.2517%
Source Step = 91.3228%
Source Step = 91.3939%
Source Step = 91.465%
Source Step = 91.5361%
Source Step = 91.6072%
Source Step = 91.6784%
Source Step = 91.7495%
Source Step = 91.8206%
Source Step = 91.8917%
