Questionable use of curly braces in ".model sir870adp vdmos(rg=3 vto=2.9 rd=3.2m rs=1.5m rb={m} kp=100 mtriode=1.85 cgdmax=1.4n cgdmin=70p cgs=2.9n cjo=3.6n m=.4 a=.7 vj=.7 lambda=20m is=3p ksubthres=.08 mfg=siliconix vds=100 ron=5.5m qg=53.5n)"
    Error: undefined symbol in: "[m]"
Circuit: * Z:\LTSpice\VOLUMEBOARD.asc

Direct Newton iteration for .op point succeeded.

Date: Tue Feb 02 11:38:49 2021
Total elapsed time: 0.162 seconds.

tnom = 27
temp = 27
method = modified trap
totiter = 2142
traniter = 2100
tranpoints = 1051
accept = 1051
rejected = 0
matrix size = 49
fillins = 12
solver = Normal
Matrix Compiler1: 4.16 KB object code size  0.6/0.4/[0.3]
Matrix Compiler2: off  [0.3]/0.5/0.4


