Questionable use of curly braces in ".model sir870adp vdmos(rg=3 vto=2.9 rd=3.2m rs=1.5m rb={m} kp=100 mtriode=1.85 cgdmax=1.4n cgdmin=70p cgs=2.9n cjo=3.6n m=.4 a=.7 vj=.7 lambda=20m is=3p ksubthres=.08 mfg=siliconix vds=100 ron=5.5m qg=53.5n)"
    Error: undefined symbol in: "[m]"
Circuit: * Z:\LTSpice\ZENERREG.asc

.OP point found by inspection.

Date: Tue Feb 02 11:38:08 2021
Total elapsed time: 0.129 seconds.

tnom = 27
temp = 27
method = modified trap
totiter = 2630
traniter = 2630
tranpoints = 1184
accept = 1152
rejected = 32
matrix size = 16
fillins = 2
solver = Normal
Matrix Compiler1: 1012 bytes object code size  0.2/0.1/[0.1]
Matrix Compiler2: 1.33 KB object code size  0.1/0.2/[0.1]


