Circuit: * Y:\TriSateSwitch.asc

Direct Newton iteration for .op point succeeded.

Date: Fri Apr 05 20:20:09 2024
Total elapsed time: 0.137 seconds.

tnom = 27
temp = 27
method = modified trap
totiter = 2121
traniter = 2090
tranpoints = 1046
accept = 1046
rejected = 0
matrix size = 59
fillins = 56
solver = Normal
Matrix Compiler1: 6.77 KB object code size  0.7/0.3/[0.3]
Matrix Compiler2: off  [0.3]/0.4/0.3


